opendss_networks/LV34_20bus/lines.dss
new line.L_188 lineCode=ughv_400al_triplex_ug_4w_bundled bus1=B2629 bus2=B3206 length=0.000602462021542 units=km phases=4
new line.L_309 lineCode=uglv_240al_xlpe/nyl/pvc_ug_4w_bundled bus1=B2139 bus2=B1425 length=0.0386570497568 units=km phases=4
new line.L_642 lineCode=ughv_400al_triplex_ug_4w_bundled bus1=B131 bus2=B1425 length=0.000200000000000 units=km phases=4
new line.L_834 lineCode=ughv_400al_triplex_ug_4w_bundled bus1=B855 bus2=B1955 length=0.000386629091125 units=km phases=4
new line.L_863 lineCode=uglv_240al_xlpe/nyl/pvc_ug_4w_bundled bus1=B1385 bus2=B393 length=0.279293235466 units=km phases=4
new line.L_1246 lineCode=abc4x95_lv_oh_4w_bundled bus1=B2173 bus2=B2034 length=0.0492600535966 units=km phases=4
new line.L_1655 lineCode=abc4x16_lv_oh_4w_bundled bus1=B801 bus2=B2629 length=0.0110205840885 units=km phases=4
new line.L_2414 lineCode=abc4x95_lv_oh_4w_bundled bus1=B2914 bus2=B2173 length=0.0612407691800 units=km phases=4
new line.L_2562 lineCode=abc4x16_lv_oh_4w_bundled bus1=B1952 bus2=B3206 length=0.122073341368 units=km phases=4
new line.L_2763 lineCode=abc4x95_lv_oh_4w_bundled bus1=B1498 bus2=B131 length=0.0487952542421 units=km phases=4
new line.L_2944 lineCode=uglv_240al_xlpe/nyl/pvc_ug_4w_bundled bus1=B42 bus2=B393 length=0.00993938452311 units=km phases=4
new line.L_2966 lineCode=uglv_240al_xlpe/nyl/pvc_ug_4w_bundled bus1=B393 bus2=B3170 length=0.0643395792494 units=km phases=4
new line.L_3054 lineCode=ughv_400al_triplex_ug_4w_bundled bus1=B801 bus2=B1498 length=0.000301671842953 units=km phases=4
new line.L_3324 lineCode=ughv_400al_triplex_ug_4w_bundled bus1=B2850 bus2=B1659 length=0.000299135511272 units=km phases=4
new line.L_3476 lineCode=uglv_240al_xlpe/nyl/pvc_ug_4w_bundled bus1=B3004 bus2=B2139 length=0.0117275611358 units=km phases=4
new line.L_3696 lineCode=abc4x95_lv_oh_4w_bundled bus1=B131 bus2=B2914 length=0.0617081222473 units=km phases=4
new line.L_4660 lineCode=ughv_400al_triplex_ug_4w_bundled bus1=B42 bus2=B2034 length=0.000200000000000 units=km phases=4
